
     RDKit          3D

 15 14  0  0  0  0  0  0  0  0999 V2000
   -2.1700    0.4118    0.3473 C   0  0  0  0  0  0  0  0  0  0  0  0
   -1.7542   -0.8885   -0.3064 C   0  0  0  0  0  0  0  0  0  0  0  0
   -0.5299   -0.6503   -0.9636 O   0  0  0  0  0  0  0  0  0  0  0  0
    0.5863   -0.2243   -0.2163 C   0  0  0  0  0  0  0  0  0  0  0  0
    0.5018   -0.0550    1.0266 O   0  0  0  0  0  0  0  0  0  0  0  0
    1.8086    0.0220   -0.8184 O   0  0  0  0  0  0  0  0  0  0  0  0
    2.8897    0.4477   -0.0106 C   0  0  0  0  0  0  0  0  0  0  0  0
   -1.7780    1.2980   -0.2156 H   0  0  0  0  0  0  0  0  0  0  0  0
   -1.7942    0.3841    1.3938 H   0  0  0  0  0  0  0  0  0  0  0  0
   -3.2769    0.5197    0.3228 H   0  0  0  0  0  0  0  0  0  0  0  0
   -2.4843   -1.2267   -1.0788 H   0  0  0  0  0  0  0  0  0  0  0  0
   -1.5780   -1.6947    0.4408 H   0  0  0  0  0  0  0  0  0  0  0  0
    3.8076   -0.0033   -0.4627 H   0  0  0  0  0  0  0  0  0  0  0  0
    3.0176    1.5435   -0.0324 H   0  0  0  0  0  0  0  0  0  0  0  0
    2.7540    0.1159    1.0517 H   0  0  0  0  0  0  0  0  0  0  0  0
  1  2  1  0
  2  3  1  0
  3  4  1  0
  4  5  2  0
  4  6  1  0
  6  7  1  0
  1  8  1  0
  1  9  1  0
  1 10  1  0
  2 11  1  0
  2 12  1  0
  7 13  1  0
  7 14  1  0
  7 15  1  0
M  END
